LTspice 24.0.12 for Windows
Circuit: * D:\2025-2026-4GPb-NMinhKhue-lok411-ntruonginsatls\LTSPice\Draft2.asc
Start Time: Fri Apr 10 00:45:46 2026
solver = Normal
Maximum thread count: 12
tnom = 27
temp = 27
method = modified trap
Direct Newton iteration for .op point succeeded.
Total elapsed time: 0.273 seconds.

